Circuit: * C:\Pinebox Effects\Booost\BJT_Treble_Boost.asc

Direct Newton iteration for .op point succeeded.

Date: Tue Jan 16 22:05:58 2018
Total elapsed time: 0.044 seconds.

tnom = 27
temp = 27
method = trap
totiter = 7
traniter = 0
tranpoints = 0
accept = 0
rejected = 0
matrix size = 11
fillins = 0
solver = Normal
Matrix Compiler1:      33 opcodes
Matrix Compiler2: 847 bytes object code size
