Circuit: * C:\Pinebox Effects\Booost\Draft1.asc

Direct Newton iteration for .op point succeeded.

Date: Fri Jan 19 13:37:00 2018
Total elapsed time: 0.216 seconds.

tnom = 27
temp = 27
method = modified trap
totiter = 2097
traniter = 2082
tranpoints = 1042
accept = 1042
rejected = 0
matrix size = 8
fillins = 0
solver = Normal
Matrix Compiler1: 460 bytes object code size  0.3/0.1/[0.1]
Matrix Compiler2: off  [0.2]/0.3/0.2

