Circuit: * C:\Pinebox Effects\Booost\EQBoost.asc

Direct Newton iteration failed to find .op point.  (Use ".option noopiter" to skip.)
Starting Gmin stepping
Gmin = 10
Gmin = 1.07374
vernier = 0.5
vernier = 0.25
vernier = 0.125
vernier = 0.0625
Gmin = 1.08482
vernier = 0.03125
vernier = 0.015625
vernier = 0.0208333
Gmin = 1.04208
vernier = 0.0104167
vernier = 0.00520833
vernier = 0.00694444
Gmin = 1.03531
vernier = 0.00347222
vernier = 0.00173611
vernier = 0.00231481
Gmin = 1.03068
vernier = 0.00308642
vernier = 0.00154321
Gmin = 1.02533
vernier = 0.000771604
vernier = 0.00102881
Gmin = 1.02329
vernier = 0.00137174
vernier = 0.00182899
vernier = 0.000914493
Gmin = 1.02066
vernier = 0.000457247
vernier = 0.000609662
Gmin = 1.01946
vernier = 0.000812882
vernier = 0.00108384
vernier = 0.000541921
Gmin = 1.0179
vernier = 0.000406441
vernier = 0.000541921
Gmin = 1.01683
vernier = 0.000722562
vernier = 0.000541921
vernier = 0.000406441
Gmin = 1.01572
vernier = 0.000541921
Gmin = 1.01448
vernier = 0.000722561
vernier = 0.000541921
vernier = 0.000406441
vernier = 0.000541921
vernier = 0.000406441
Gmin = 1.01397
Gmin = 0
Gmin stepping failed

Starting source stepping with srcstepmethod=0
Source Step = 3.0303%
Source Step = 33.3333%
Source Step = 63.6364%
Source Step = 77.6515%
vernier = 0.015625
Source Step = 77.7077%
Source Step = 77.7373%
Source Step = 77.7669%
Source Step = 77.7965%
Source Step = 77.8261%
Source Step = 77.8557%
vernier = 0.00146484
Source Step = 77.8986%
Source Step = 77.943%
Source Step = 77.9874%
Source Step = 78.0318%
Source Step = 78.0762%
vernier = 0.00219727
Source Step = 78.1383%
Source Step = 78.2049%
Source Step = 78.2715%
Source Step = 78.3381%
Source Step = 78.4047%
vernier = 0.0032959
Source Step = 78.4945%
Source Step = 78.5944%
Source Step = 78.6943%
Source Step = 78.7942%
Source Step = 78.894%
vernier = 0.00494385
Source Step = 79.0239%
Source Step = 79.1737%
Source Step = 79.3235%
Source Step = 79.4733%
Source Step = 79.6231%
vernier = 0.00741577
Source Step = 79.8104%
Source Step = 80.0351%
Source Step = 80.2598%
Source Step = 80.4846%
Source Step = 80.7093%
vernier = 0.0111237
Source Step = 80.9789%
Source Step = 81.316%
Source Step = 81.6531%
Source Step = 81.9902%
Source Step = 82.3273%
vernier = 0.0166855
Source Step = 82.7149%
Source Step = 83.2205%
Source Step = 83.7262%
Source Step = 84.2318%
Source Step = 84.7374%
vernier = 0.0250282
Source Step = 85.2936%
Source Step = 86.052%
Source Step = 86.8104%
Source Step = 87.5689%
Source Step = 88.3273%
vernier = 0.0375423
Source Step = 89.1237%
Source Step = 90.2613%
vernier = 0.00938559
Source Step = 90.2115%
Source Step = 90.2826%
Source Step = 90.3537%
Source Step = 90.4248%
Source Step = 90.4959%
Source Step = 90.567%
Source Step = 90.6381%
Source Step = 90.7093%
Source Step = 90.7804%
Source Step = 90.8515%
Source Step = 90.9226%
Source Step = 90.9937%
Source Step = 91.0648%
Source Step = 91.1359%
Source Step = 91.207%
Source Step = 91.2781%
Source Step = 91.3492%
Source Step = 91.4203%
Source Step = 91.4914%
Source Step = 91.5625%
Source Step = 91.6336%
Source Step = 91.7047%
Source Step = 91.7758%
Source Step = 91.8469%
Source Step = 91.918%
Source Step = 91.9891%
Source Step = 92.0602%
Source Step = 92.1313%
Source Step = 92.2024%
Source Step = 92.2735%
Source Step = 92.3446%
Source Step = 92.4157%
Source Step = 92.4868%
Source Step = 92.5579%
Source Step = 92.629%
Source Step = 92.7001%
Source Step = 92.7712%
Source Step = 92.8423%
Source Step = 92.9134%
Source Step = 92.9845%
Source Step = 93.0556%
Source Step = 93.1268%
Source Step = 93.1979%
Source Step = 93.269%
Source Step = 93.3401%
Source Step = 93.4112%
Source Step = 93.4823%
Source Step = 93.5534%
Source Step = 93.6245%
Source Step = 93.6956%
Source Step = 93.7667%
Source Step = 93.8378%
Source Step = 93.9089%
Source Step = 93.98%
Source Step = 94.0511%
Source Step = 94.1222%
Source Step = 94.1933%
Source Step = 94.2644%
Source Step = 94.3355%
Source Step = 94.4066%
Source Step = 94.4777%
Source Step = 94.5488%
Source Step = 94.6199%
Source Step = 94.691%
Source Step = 94.7621%
Source Step = 94.8332%
Source Step = 94.9043%
Source Step = 94.9754%
Source Step = 95.0465%
Source Step = 95.1176%
Source Step = 95.1887%
Source Step = 95.2598%
Source Step = 95.3309%
Source Step = 95.402%
Source Step = 95.4731%
Source Step = 95.5443%
Source Step = 95.6154%
Source Step = 95.6865%
Source Step = 95.7576%
Source Step = 95.8287%
Source Step = 95.8998%
Source Step = 95.9709%
Source Step = 96.042%
Source Step = 96.1131%
Source Step = 96.1842%
Source Step = 96.2553%
Source Step = 96.3264%
Source Step = 96.3975%
Source Step = 96.4686%
Source Step = 96.5397%
Source Step = 96.6108%
Source Step = 96.6819%
Source Step = 96.753%
Source Step = 96.8241%
Source Step = 96.8952%
Source Step = 96.9663%
Source Step = 97.0374%
Source Step = 97.1085%
Source Step = 97.1796%
Source Step = 97.2507%
Source Step = 97.3218%
vernier = 0.00351959
Source Step = 97.4178%
Source Step = 97.5245%
Source Step = 97.6311%
Source Step = 97.7378%
Source Step = 97.8444%
vernier = 0.00527939
Source Step = 97.9831%
Source Step = 98.1431%
Source Step = 98.303%
Source Step = 98.463%
Source Step = 98.623%
vernier = 0.00791909
Source Step = 98.823%
Source Step = 99.063%
Source Step = 99.3029%
Source Step = 99.5429%
Source Step = 99.7829%
vernier = 0.0118786
Source stepping succeeded in finding the operating point.


Date: Sun Jan 14 23:34:03 2018
Total elapsed time: 21.906 seconds.

tnom = 27
temp = 27
method = trap
totiter = 69226
traniter = 0
tranpoints = 0
accept = 0
rejected = 0
matrix size = 239
fillins = 314
solver = Normal
Matrix Compiler1:    1599 opcodes
Matrix Compiler2: 24.90 KB object code size  4.6/6.9/[1.8]

