Circuit: * C:\GitHub\Booost\JFET_Dual_Stage.asc

WARNING: Node N012 is floating.

WARNING: Less than two connections to node N012.  This node is used by C3.
Direct Newton iteration for .op point succeeded.

Date: Sun Jun 25 23:00:11 2017
Total elapsed time: 0.115 seconds.

tnom = 27
temp = 27
method = modified trap
totiter = 2138
traniter = 2132
tranpoints = 1047
accept = 1047
rejected = 0
matrix size = 20
fillins = 0
solver = Normal
Matrix Compiler1: 1.12 KB object code size  0.4/0.2/[0.2]
Matrix Compiler2: 1.50 KB object code size  0.2/0.4/[0.2]

