Circuit: * C:\Users\Jeremiah Lilland\Documents\GitHub\Booost\MOSFET_Single_Stage.asc

Direct Newton iteration for .op point succeeded.

Date: Fri Mar 23 12:05:57 2018
Total elapsed time: 0.201 seconds.

tnom = 27
temp = 27
method = trap
totiter = 10
traniter = 0
tranpoints = 0
accept = 0
rejected = 0
matrix size = 13
fillins = 2
solver = Normal
Matrix Compiler1:      43 opcodes
Matrix Compiler2: 1.00 KB object code size
