Circuit: * C:\Pinebox Effects\Booost\TrebleBoost.asc

Direct Newton iteration for .op point succeeded.
.step b=1 c=10
.step b=3.16228 c=10
.step b=10 c=10
.step b=31.6228 c=10
.step b=100 c=10
.step b=316.228 c=10
.step b=1000 c=10
.step b=3162.28 c=10
.step b=5000 c=10
.step b=1 c=31.6228
.step b=3.16228 c=31.6228
.step b=10 c=31.6228
.step b=31.6228 c=31.6228
.step b=100 c=31.6228
.step b=316.228 c=31.6228
.step b=1000 c=31.6228
.step b=3162.28 c=31.6228
.step b=5000 c=31.6228
.step b=1 c=100
.step b=3.16228 c=100
.step b=10 c=100
.step b=31.6228 c=100
.step b=100 c=100
.step b=316.228 c=100
.step b=1000 c=100
.step b=3162.28 c=100
.step b=5000 c=100
.step b=1 c=316.228
.step b=3.16228 c=316.228
.step b=10 c=316.228
.step b=31.6228 c=316.228
.step b=100 c=316.228
.step b=316.228 c=316.228
.step b=1000 c=316.228
.step b=3162.28 c=316.228
.step b=5000 c=316.228
.step b=1 c=1000
.step b=3.16228 c=1000
.step b=10 c=1000
.step b=31.6228 c=1000
.step b=100 c=1000
.step b=316.228 c=1000
.step b=1000 c=1000
.step b=3162.28 c=1000
.step b=5000 c=1000
.step b=1 c=3162.28
.step b=3.16228 c=3162.28
.step b=10 c=3162.28
.step b=31.6228 c=3162.28
.step b=100 c=3162.28
.step b=316.228 c=3162.28
.step b=1000 c=3162.28
.step b=3162.28 c=3162.28
.step b=5000 c=3162.28
.step b=1 c=10000
.step b=3.16228 c=10000
.step b=10 c=10000
.step b=31.6228 c=10000
.step b=100 c=10000
.step b=316.228 c=10000
.step b=1000 c=10000
.step b=3162.28 c=10000
.step b=5000 c=10000

Date: Fri Jan 19 22:00:13 2018
Total elapsed time: 0.398 seconds.

tnom = 27
temp = 27
method = trap
totiter = 8
traniter = 0
tranpoints = 0
accept = 0
rejected = 0
matrix size = 14
fillins = 2
solver = Normal
Matrix Compiler1:      53 opcodes
Matrix Compiler2: 1.12 KB object code size
